Version 4
SHEET 1 880 680
WIRE -400 -144 -608 -144
WIRE -400 -112 -400 -144
WIRE 768 -112 -144 -112
WIRE -144 -96 -144 -112
WIRE -608 -64 -608 -144
WIRE 400 -64 304 -64
WIRE 592 -64 400 -64
WIRE 592 -48 592 -64
WIRE 304 -16 304 -64
WIRE -144 16 -144 -16
WIRE -144 16 -240 16
WIRE 64 16 -80 16
WIRE 224 16 128 16
WIRE -144 32 -144 16
WIRE -608 64 -608 16
WIRE -464 64 -608 64
WIRE -240 64 -240 16
WIRE -240 64 -272 64
WIRE 400 64 400 -64
WIRE 592 64 592 32
WIRE 768 64 768 -112
WIRE 768 64 592 64
WIRE 592 80 592 64
WIRE 64 96 -48 96
WIRE 224 96 224 16
WIRE 224 96 128 96
WIRE 304 96 304 64
WIRE 304 96 224 96
WIRE 304 112 304 96
WIRE -464 128 -608 128
WIRE -48 128 -48 96
WIRE -240 160 -272 160
WIRE 128 176 48 176
WIRE -608 192 -608 128
WIRE 224 192 224 96
WIRE 224 192 192 192
WIRE -240 208 -240 160
WIRE -144 208 -144 112
WIRE -144 208 -240 208
WIRE -80 208 -80 16
WIRE -80 208 -144 208
WIRE -48 208 -80 208
WIRE 48 208 48 176
WIRE 48 208 -48 208
WIRE 128 208 64 208
WIRE 304 224 304 192
WIRE 400 224 400 144
WIRE 400 224 304 224
WIRE 592 224 592 144
WIRE 592 224 400 224
WIRE 64 272 64 208
WIRE 304 272 304 224
WIRE 304 272 64 272
FLAG 400 224 0
FLAG -400 -32 0
FLAG -608 192 0
SYMBOL AutoGenerated\\TL431 160 192 R180
SYMATTR InstName U1
SYMBOL AutoGenerated\\DI_MMSZ5240B 592 112 R270
SYMATTR InstName U2
SYMBOL voltage 400 48 R0
WINDOW 123 0 0 Left 0
WINDOW 39 0 0 Left 0
SYMATTR InstName V1
SYMATTR Value PULSE(0 25 0.5 10 0.5 25 0.5 30)
SYMBOL res 288 -32 R0
SYMATTR InstName R1
SYMATTR Value 35.2k
SYMBOL res 288 96 R0
SYMATTR InstName R2
SYMATTR Value 4.12k
SYMBOL res 576 -64 R0
SYMATTR InstName R3
SYMATTR Value 1.5k
SYMBOL res -160 -112 R0
SYMATTR InstName R4
SYMATTR Value 1k
SYMBOL res -160 16 R0
SYMATTR InstName R5
SYMATTR Value 1k
SYMBOL Optos\\CNY17-1 -368 128 M0
SYMATTR InstName U3
SYMBOL cap 128 0 R90
WINDOW 0 0 32 VBottom 2
WINDOW 3 32 32 VTop 2
SYMATTR InstName C1
SYMATTR Value 43p
SYMBOL cap 128 80 R90
WINDOW 0 0 32 VBottom 2
WINDOW 3 32 32 VTop 2
SYMATTR InstName C2
SYMATTR Value 27n
SYMBOL res -64 112 R0
SYMATTR InstName R6
SYMATTR Value 93..1k
SYMBOL voltage -400 -128 R0
WINDOW 123 0 0 Left 0
WINDOW 39 0 0 Left 0
SYMATTR InstName V2
SYMATTR Value 5
SYMBOL res -624 -80 R0
SYMATTR InstName R7
SYMATTR Value 20k
SYMBOL cap -624 64 R0
SYMATTR InstName C3
SYMATTR Value 200p
TEXT -226 282 Left 2 !.tran 100
